.header
  .logo
    1C
  .slogan
    Комплексная работа с 1С.
    %br
    Быстро. Оперативо. Адекватно.


.block.special-offer.animated-background#special-banner
  %h1
    Акция до 5 июля.
  .description
    %p
      Установка, настройка и обучение всего персонала обойдется вам всего в 38 000 рублей.
      Оставьте заявку, чтобы получить больше информации.


.wrapper

  .benefits-header
    Наши преимущества:

  .benefits
    .benefit
      .title
        %h5
          Низкие цены
      .description
        %p
          У нас одни из самых низких цен по рынку и самое оптимальное соотношение цена-качество.
          Кроме того мы всегда работаем по постоплате и можем даже в рассрочку.
    .benefit
      .title
        %h5
          Гарантия качества
      .description
        %p
          У нас одни из самых низких цен по рынку и самое оптимальное соотношение цена-качество.
          Кроме того мы всегда работаем по постоплате и можем даже в рассрочку.
    .benefit
      .title
        %h5
          Контроль сроков
      .description
        %p
          У нас одни из самых низких цен по рынку и самое оптимальное соотношение цена-качество.
          Кроме того мы всегда работаем по постоплате и можем даже в рассрочку.
    .benefit
      .title
        %h5
          Удобство
      .description
        %p
          У нас одни из самых низких цен по рынку и самое оптимальное соотношение цена-качество.
          Кроме того мы всегда работаем по постоплате и можем даже в рассрочку.



.area
  .wrapper
    .solutions-header
      Наши решения:

    .solutions
      .solution
        .head-line
          .icon
            .crm-icon
          .title
            %h5
              Собственная система учета задач
        .description
          %p
            Уникальная система учета задач. Хотите самостоятельно утверждать все задачи,
            исходящие от Ваших сотрудников? Иметь возможность увидеть детальный отчет об
            обращениях и задачах специалистов 1С онлайн? Накапливать собственную базу знаний
            о тонкостях работы в 1С именно для Вашего предприятия? В этом вам поможет наша
            система учета задач!


      .solution
        .head-line
          .icon
            .zero-olo
          .title
            %h5
              Опыт внедрения 1С «с нуля»
        .description
          %p
            Опыт внедрения 1С «с нуля». Уметь программировать в 1С: Предприятие и способность
            грамотно составить систему бизнес-процессов, прописать понятные инструкции, составить
            информативную и достоверную систему отчетности – не одно и то же. Мы всегда
            предложим оптимальные решения для Вашего бизнеса



      .solution
        .head-line
          .icon
            .optimization-icon
          .title
            %h5
              Оптимизация стоимости выполнения задач
        .description
          %p
            Оптимизация Скорости/Стоимости выполнения задач. Каждая задача анализируется
            с точки зрения срочности. Мы готовы выполнять горящие задачи в рекордные сроки,
            приступая немедленно, при получении таковой за разумную наценку и минимизируем
            стоимость обычных задач за счет грамотного планирования времени сотрудников.


      .solution
        .head-line
          .icon
            .low-cost-icon
          .title
            %h5
              Адекватная стоимость услуг по сопровождению
        .description
          %p
            Адекватная стоимость услуг по сопровождению 1С. Мы максимально оптимизируем свои
            затраты, привлекая талантливых специалистов из других городов, постоянно накапливая
            готовые решения, поручая вспомогательную работу (тестирование, составление
            документации) помощникам специалистов, что, в итоге, позволяет Вам сэкономить свои
            деньги.


      .solution
        .head-line
          .icon
            .garant-icon
          .title
            %h5
              Гарантия качества
        .description
          %p
            Гарантия качества. На все наши работы, выполненные по техническим заданиям
            действует гарантия на качество – любые несоответствия исправляются бесплатно в
            течение 6 месяцев с момента выполнения задачи.


      .solution
        .head-line
          .icon
            .result-icon
          .title
            %h5
              Ориентированность на результат
        .description
          %p
            Ориентированность на результат. Мы считаем, что все выполняемые нами задачи
            должны быть полезны. Если изменения, которые Вы хотите внести в программу 1С, на наш
            взгляд, не приведут к желаемому экономическому эффекту, мы обязательно предупредим
            Вас об этом и дадим свои рекомендации.



#thank-you
  %h2
    Спасибо за обращение!
  Мы свяжемся с вами уже очень скоро.

.wrapper
  #form
    .left-part
      .title
        Оставьте заявку и с вами свяжется наш менеджер
      .comment
        %p
          Срок обработки заявки - не более 4-х часов в будние дни. Если мы не связались с вами в течение этого времени
          не стесняйтесь - позвоните сами.

    .right-part
      %form

        .error.name-error
          Вы забыли написать имя!
        %input{placeholder: 'Ваше имя', name: :username}
        .error.phone-error
          Вы забыли написать номер телефона
        %input{placeholder: 'Номер телефона', name: :userphone}
        %textarea{placeholder: 'Комментарий к заявке', name: :comment}
        .submit.animated-background#submit-order
          Отправить заявку




#footer
  а тут можно разместить информацию под звездочкой, номер телефона, кнопку наверх и что-нибудь такое еще
